
     RDKit          3D

 22 22  0  0  0  0  0  0  0  0999 V2000
   24.2939  -24.1231   -0.0695 C   0  0  0  0  0  0  0  0  0  0  0  0
   23.9248  -24.7042   -1.3942 C   0  0  0  0  0  0  0  0  0  0  0  0
   22.4654  -24.4137   -1.8075 C   0  0  0  0  0  0  0  0  0  0  0  0
   22.2920  -25.1880   -3.0736 C   0  0  0  0  0  0  0  0  0  0  0  0
   21.6929  -26.4583   -2.9560 C   0  0  0  0  0  0  0  0  0  0  0  0
   21.5534  -27.2144   -4.1119 C   0  0  0  0  0  0  0  0  0  0  0  0
   22.0671  -26.7483   -5.3317 C   0  0  0  0  0  0  0  0  0  0  0  0
   22.6710  -25.5113   -5.4469 C   0  0  0  0  0  0  0  0  0  0  0  0
   22.7695  -24.7306   -4.2963 C   0  0  0  0  0  0  0  0  0  0  0  0
   23.4121  -23.5351   -4.3422 O   0  0  0  0  0  0  0  0  0  0  0  0
   24.1847  -23.0337   -0.0719 H   0  0  0  0  0  0  0  0  0  0  0  0
   23.6615  -24.5243    0.7291 H   0  0  0  0  0  0  0  0  0  0  0  0
   25.3345  -24.3552    0.1791 H   0  0  0  0  0  0  0  0  0  0  0  0
   24.0959  -25.7884   -1.3478 H   0  0  0  0  0  0  0  0  0  0  0  0
   24.6239  -24.3162   -2.1455 H   0  0  0  0  0  0  0  0  0  0  0  0
   22.3018  -23.3421   -1.9663 H   0  0  0  0  0  0  0  0  0  0  0  0
   21.7646  -24.7377   -1.0295 H   0  0  0  0  0  0  0  0  0  0  0  0
   21.3323  -26.8345   -2.0042 H   0  0  0  0  0  0  0  0  0  0  0  0
   21.0793  -28.1919   -4.0660 H   0  0  0  0  0  0  0  0  0  0  0  0
   21.9712  -27.3790   -6.2139 H   0  0  0  0  0  0  0  0  0  0  0  0
   23.0574  -25.1784   -6.4028 H   0  0  0  0  0  0  0  0  0  0  0  0
   23.6985  -23.3678   -5.2543 H   0  0  0  0  0  0  0  0  0  0  0  0
  1  2  1  0
  2  3  1  0
  3  4  1  0
  4  5  2  0
  5  6  1  0
  6  7  2  0
  7  8  1  0
  8  9  2  0
  9 10  1  0
  9  4  1  0
  1 11  1  0
  1 12  1  0
  1 13  1  0
  2 14  1  0
  2 15  1  0
  3 16  1  0
  3 17  1  0
  5 18  1  0
  6 19  1  0
  7 20  1  0
  8 21  1  0
 10 22  1  0
M  END
